* SPICE3 file created from opamp_flatten.ext - technology: sky130A

.subckt opamp_flatten vdd iref vin_n vin_p vout vss
X0 vss.t267 voe1.t236 vout.t101 vss.t145 sky130_fd_pr__nfet_01v8 ad=0.6525 pd=4.79 as=0.6525 ps=4.79 w=4.5 l=0.45
X1 vout.t117 voe1.t237 vss.t266 vss.t206 sky130_fd_pr__nfet_01v8 ad=0.6525 pd=4.79 as=0.6525 ps=4.79 w=4.5 l=0.45
X2 w_4660_n6791.t388 vin_n.t0 vbn.t120 w_4660_n6791.t148 sky130_fd_pr__pfet_01v8 ad=0.435 pd=3.29 as=0.435 ps=3.29 w=3 l=0.3
X3 voe1.t232 vin_p.t0 w_4660_n6791.t476 w_4660_n6791.t41 sky130_fd_pr__pfet_01v8 ad=0.435 pd=3.29 as=0.435 ps=3.29 w=3 l=0.3
X4 w_4660_n6791.t387 vin_n.t1 vbn.t119 w_4660_n6791.t37 sky130_fd_pr__pfet_01v8 ad=0.435 pd=3.29 as=0.435 ps=3.29 w=3 l=0.3
X5 w_4660_n6791.t386 vin_n.t2 vbn.t217 w_4660_n6791.t64 sky130_fd_pr__pfet_01v8 ad=0.435 pd=3.29 as=0.435 ps=3.29 w=3 l=0.3
X6 vout.t148 voe1.t238 vss.t265 vss.t203 sky130_fd_pr__nfet_01v8 ad=0.6525 pd=4.79 as=0.6525 ps=4.79 w=4.5 l=0.45
X7 w_4660_n6791.t385 vin_n.t3 vbn.t216 w_4660_n6791.t37 sky130_fd_pr__pfet_01v8 ad=0.435 pd=3.29 as=0.435 ps=3.29 w=3 l=0.3
X8 vdd.t314 iref.t30 vout.t52 vdd.t239 sky130_fd_pr__pfet_01v8 ad=0.435 pd=3.29 as=0.435 ps=3.29 w=3 l=0.3
X9 vss.t264 voe1.t239 vout.t159 vss.t139 sky130_fd_pr__nfet_01v8 ad=0.6525 pd=4.79 as=0.6525 ps=4.79 w=4.5 l=0.45
X10 vout.t158 voe1.t240 vss.t263 vss.t200 sky130_fd_pr__nfet_01v8 ad=0.6525 pd=4.79 as=0.6525 ps=4.79 w=4.5 l=0.45
X11 vbn.t215 vin_n.t4 w_4660_n6791.t384 w_4660_n6791.t7 sky130_fd_pr__pfet_01v8 ad=0.435 pd=3.29 as=0.435 ps=3.29 w=3 l=0.3
X12 vout.t147 voe1.t241 vss.t262 vss.t135 sky130_fd_pr__nfet_01v8 ad=0.6525 pd=4.79 as=0.6525 ps=4.79 w=4.5 l=0.45
X13 vout.t72 voe1.t242 vss.t261 vss.t197 sky130_fd_pr__nfet_01v8 ad=0.6525 pd=4.79 as=0.6525 ps=4.79 w=4.5 l=0.45
X14 vout.t211 iref.t31 vdd.t313 vdd.t108 sky130_fd_pr__pfet_01v8 ad=0.435 pd=3.29 as=0.435 ps=3.29 w=3 l=0.3
X15 vbn.t253 vin_n.t5 w_4660_n6791.t383 w_4660_n6791.t7 sky130_fd_pr__pfet_01v8 ad=0.435 pd=3.29 as=0.435 ps=3.29 w=3 l=0.3
X16 w_4660_n6791.t404 vin_p.t1 voe1.t165 w_4660_n6791.t291 sky130_fd_pr__pfet_01v8 ad=0.435 pd=3.29 as=0.435 ps=3.29 w=3 l=0.3
X17 vout.t160 voe1.t243 vss.t260 vss.t194 sky130_fd_pr__nfet_01v8 ad=0.6525 pd=4.79 as=1.305 ps=9.58 w=4.5 l=0.45
X18 w_4660_n6791.t406 vin_p.t2 voe1.t167 w_4660_n6791.t141 sky130_fd_pr__pfet_01v8 ad=0.435 pd=3.29 as=0.435 ps=3.29 w=3 l=0.3
X19 w_4660_n6791.t405 vin_p.t3 voe1.t166 w_4660_n6791.t291 sky130_fd_pr__pfet_01v8 ad=0.435 pd=3.29 as=0.435 ps=3.29 w=3 l=0.3
X20 w_4660_n6791.t454 vin_p.t4 voe1.t212 w_4660_n6791.t141 sky130_fd_pr__pfet_01v8 ad=0.435 pd=3.29 as=0.435 ps=3.29 w=3 l=0.3
X21 vdd.t312 iref.t32 vout.t265 vdd.t100 sky130_fd_pr__pfet_01v8 ad=0.435 pd=3.29 as=0.435 ps=3.29 w=3 l=0.3
X22 vbn.t252 vin_n.t6 w_4660_n6791.t382 w_4660_n6791.t86 sky130_fd_pr__pfet_01v8 ad=0.435 pd=3.29 as=0.435 ps=3.29 w=3 l=0.3
X23 voe1.t34 vin_p.t5 w_4660_n6791.t55 w_4660_n6791.t15 sky130_fd_pr__pfet_01v8 ad=0.435 pd=3.29 as=0.435 ps=3.29 w=3 l=0.3
X24 vout.t90 voe1.t244 vss.t259 vss.t127 sky130_fd_pr__nfet_01v8 ad=0.6525 pd=4.79 as=0.6525 ps=4.79 w=4.5 l=0.45
X25 vbn.t251 vin_n.t7 w_4660_n6791.t381 w_4660_n6791.t86 sky130_fd_pr__pfet_01v8 ad=0.435 pd=3.29 as=0.435 ps=3.29 w=3 l=0.3
X26 voe1.t8 vin_p.t6 w_4660_n6791.t16 w_4660_n6791.t15 sky130_fd_pr__pfet_01v8 ad=0.435 pd=3.29 as=0.435 ps=3.29 w=3 l=0.3
X27 vdd.t311 iref.t33 vout.t0 vdd.t237 sky130_fd_pr__pfet_01v8 ad=0.435 pd=3.29 as=0.435 ps=3.29 w=3 l=0.3
X28 vout.t236 iref.t34 vdd.t310 vdd.t96 sky130_fd_pr__pfet_01v8 ad=0.435 pd=3.29 as=0.435 ps=3.29 w=3 l=0.3
X29 vout.t293 iref.t35 vdd.t309 vdd.t235 sky130_fd_pr__pfet_01v8 ad=0.435 pd=3.29 as=0.435 ps=3.29 w=3 l=0.3
X30 voe1.t62 vin_p.t7 w_4660_n6791.t96 w_4660_n6791.t17 sky130_fd_pr__pfet_01v8 ad=0.435 pd=3.29 as=0.435 ps=3.29 w=3 l=0.3
X31 vdd.t289 iref.t36 w_4660_n6791.t56 vdd.t288 sky130_fd_pr__pfet_01v8 ad=0.435 pd=3.29 as=0.435 ps=3.29 w=3 l=0.3
X32 w_4660_n6791.t380 vin_n.t8 vbn.t123 w_4660_n6791.t39 sky130_fd_pr__pfet_01v8 ad=0.435 pd=3.29 as=0.435 ps=3.29 w=3 l=0.3
X33 vdd.t308 iref.t37 vout.t245 vdd.t232 sky130_fd_pr__pfet_01v8 ad=0.435 pd=3.29 as=0.435 ps=3.29 w=3 l=0.3
X34 voe1.t177 vin_p.t8 w_4660_n6791.t417 w_4660_n6791.t17 sky130_fd_pr__pfet_01v8 ad=0.435 pd=3.29 as=0.435 ps=3.29 w=3 l=0.3
X35 vdd.t307 iref.t38 vout.t11 vdd.t90 sky130_fd_pr__pfet_01v8 ad=0.435 pd=3.29 as=0.435 ps=3.29 w=3 l=0.3
X36 vout.t276 iref.t39 vdd.t306 vdd.t92 sky130_fd_pr__pfet_01v8 ad=0.435 pd=3.29 as=0.435 ps=3.29 w=3 l=0.3
X37 vbn.t122 vin_n.t9 w_4660_n6791.t379 w_4660_n6791.t25 sky130_fd_pr__pfet_01v8 ad=0.435 pd=3.29 as=0.435 ps=3.29 w=3 l=0.3
X38 w_4660_n6791.t411 vin_p.t9 voe1.t172 w_4660_n6791.t98 sky130_fd_pr__pfet_01v8 ad=0.435 pd=3.29 as=0.435 ps=3.29 w=3 l=0.3
X39 w_4660_n6791.t104 vin_p.t10 voe1.t67 w_4660_n6791.t64 sky130_fd_pr__pfet_01v8 ad=0.435 pd=3.29 as=0.435 ps=3.29 w=3 l=0.3
X40 w_4660_n6791.t378 vin_n.t10 vbn.t121 w_4660_n6791.t98 sky130_fd_pr__pfet_01v8 ad=0.435 pd=3.29 as=0.435 ps=3.29 w=3 l=0.3
X41 w_4660_n6791.t389 vin_p.t11 voe1.t150 w_4660_n6791.t64 sky130_fd_pr__pfet_01v8 ad=0.435 pd=3.29 as=0.435 ps=3.29 w=3 l=0.3
X42 voe1.t105 vbn.t260 vss.t280 vss.t269 sky130_fd_pr__nfet_01v8 ad=0.435 pd=3.29 as=0.435 ps=3.29 w=3 l=0.3
X43 w_4660_n6791.t391 vin_p.t12 voe1.t152 w_4660_n6791.t98 sky130_fd_pr__pfet_01v8 ad=0.435 pd=3.29 as=0.435 ps=3.29 w=3 l=0.3
X44 vdd.t305 iref.t40 vout.t212 vdd.t84 sky130_fd_pr__pfet_01v8 ad=0.435 pd=3.29 as=0.435 ps=3.29 w=3 l=0.3
X45 w_4660_n6791.t377 vin_n.t11 vbn.t174 w_4660_n6791.t60 sky130_fd_pr__pfet_01v8 ad=0.435 pd=3.29 as=0.435 ps=3.29 w=3 l=0.3
X46 vss.t258 voe1.t245 vout.t153 vss.t125 sky130_fd_pr__nfet_01v8 ad=0.6525 pd=4.79 as=0.6525 ps=4.79 w=4.5 l=0.45
X47 w_4660_n6791.t376 vin_n.t12 vbn.t173 w_4660_n6791.t64 sky130_fd_pr__pfet_01v8 ad=0.435 pd=3.29 as=0.435 ps=3.29 w=3 l=0.3
X48 vdd.t304 iref.t41 vout.t266 vdd.t230 sky130_fd_pr__pfet_01v8 ad=0.435 pd=3.29 as=0.435 ps=3.29 w=3 l=0.3
X49 vss.t277 vbn.t261 voe1.t101 vss.t275 sky130_fd_pr__nfet_01v8 ad=0.435 pd=3.29 as=0.435 ps=3.29 w=3 l=0.3
X50 vdd.t303 iref.t42 vout.t15 vdd.t78 sky130_fd_pr__pfet_01v8 ad=0.435 pd=3.29 as=0.435 ps=3.29 w=3 l=0.3
X51 vout.t278 iref.t43 vdd.t302 vdd.t80 sky130_fd_pr__pfet_01v8 ad=0.435 pd=3.29 as=0.435 ps=3.29 w=3 l=0.3
X52 vbn.t172 vin_n.t13 w_4660_n6791.t375 w_4660_n6791.t240 sky130_fd_pr__pfet_01v8 ad=0.435 pd=3.29 as=0.435 ps=3.29 w=3 l=0.3
X53 vss.t257 voe1.t246 vout.t154 vss.t123 sky130_fd_pr__nfet_01v8 ad=0.6525 pd=4.79 as=0.6525 ps=4.79 w=4.5 l=0.45
X54 voe1.t173 vin_p.t13 w_4660_n6791.t412 w_4660_n6791.t72 sky130_fd_pr__pfet_01v8 ad=0.435 pd=3.29 as=0.435 ps=3.29 w=3 l=0.3
X55 vbn.t238 vin_n.t14 w_4660_n6791.t374 w_4660_n6791.t23 sky130_fd_pr__pfet_01v8 ad=0.435 pd=3.29 as=0.435 ps=3.29 w=3 l=0.3
X56 vdd.t301 iref.t44 vout.t286 vdd.t228 sky130_fd_pr__pfet_01v8 ad=0.435 pd=3.29 as=0.435 ps=3.29 w=3 l=0.3
X57 vbn.t237 vin_n.t15 w_4660_n6791.t373 w_4660_n6791.t240 sky130_fd_pr__pfet_01v8 ad=0.435 pd=3.29 as=0.435 ps=3.29 w=3 l=0.3
X58 vss.t313 vbn.t262 voe1.t224 vss.t285 sky130_fd_pr__nfet_01v8 ad=0.435 pd=3.29 as=0.435 ps=3.29 w=3 l=0.3
X59 voe1.t168 vin_p.t14 w_4660_n6791.t407 w_4660_n6791.t72 sky130_fd_pr__pfet_01v8 ad=0.435 pd=3.29 as=0.435 ps=3.29 w=3 l=0.3
X60 voe1.t226 vbn.t263 vss.t315 vss.t278 sky130_fd_pr__nfet_01v8 ad=0.435 pd=3.29 as=0.435 ps=3.29 w=3 l=0.3
X61 vdd.t300 iref.t45 vout.t1 vdd.t72 sky130_fd_pr__pfet_01v8 ad=0.435 pd=3.29 as=0.435 ps=3.29 w=3 l=0.3
X62 vss.t256 voe1.t247 vout.t157 vss.t121 sky130_fd_pr__nfet_01v8 ad=0.6525 pd=4.79 as=0.6525 ps=4.79 w=4.5 l=0.45
X63 w_4660_n6791.t390 vin_p.t15 voe1.t151 w_4660_n6791.t92 sky130_fd_pr__pfet_01v8 ad=0.435 pd=3.29 as=0.435 ps=3.29 w=3 l=0.3
X64 w_4660_n6791.t186 vin_p.t16 voe1.t149 w_4660_n6791.t92 sky130_fd_pr__pfet_01v8 ad=0.435 pd=3.29 as=0.435 ps=3.29 w=3 l=0.3
X65 w_4660_n6791.t372 vin_n.t16 vbn.t236 w_4660_n6791.t141 sky130_fd_pr__pfet_01v8 ad=0.435 pd=3.29 as=0.435 ps=3.29 w=3 l=0.3
X66 vbn.t112 vin_n.t17 w_4660_n6791.t371 w_4660_n6791.t168 sky130_fd_pr__pfet_01v8 ad=0.435 pd=3.29 as=0.435 ps=3.29 w=3 l=0.3
X67 vout.t237 iref.t46 vdd.t299 vdd.t66 sky130_fd_pr__pfet_01v8 ad=0.435 pd=3.29 as=0.435 ps=3.29 w=3 l=0.3
X68 vout.t277 iref.t47 vdd.t298 vdd.t225 sky130_fd_pr__pfet_01v8 ad=0.435 pd=3.29 as=0.435 ps=3.29 w=3 l=0.3
X69 vss.t255 voe1.t248 vout.t129 vss.t119 sky130_fd_pr__nfet_01v8 ad=0.6525 pd=4.79 as=0.6525 ps=4.79 w=4.5 l=0.45
X70 w_4660_n6791.t370 vin_n.t18 vbn.t111 w_4660_n6791.t141 sky130_fd_pr__pfet_01v8 ad=0.435 pd=3.29 as=0.435 ps=3.29 w=3 l=0.3
X71 vbn.t110 vin_n.t19 w_4660_n6791.t369 w_4660_n6791.t168 sky130_fd_pr__pfet_01v8 ad=0.435 pd=3.29 as=0.435 ps=3.29 w=3 l=0.3
X72 vout.t116 voe1.t249 vss.t254 vss.t190 sky130_fd_pr__nfet_01v8 ad=0.6525 pd=4.79 as=0.6525 ps=4.79 w=4.5 l=0.45
X73 voe1.t135 vbn.t264 vss.t290 vss.t27 sky130_fd_pr__nfet_01v8 ad=0.435 pd=3.29 as=0.435 ps=3.29 w=3 l=0.3
X74 w_4660_n6791.t368 vin_n.t20 vbn.t157 w_4660_n6791.t166 sky130_fd_pr__pfet_01v8 ad=0.435 pd=3.29 as=0.435 ps=3.29 w=3 l=0.3
X75 vout.t115 voe1.t250 vss.t253 vss.t188 sky130_fd_pr__nfet_01v8 ad=0.6525 pd=4.79 as=0.6525 ps=4.79 w=4.5 l=0.45
X76 w_4660_n6791.t367 vin_n.t21 vbn.t156 w_4660_n6791.t112 sky130_fd_pr__pfet_01v8 ad=0.435 pd=3.29 as=0.435 ps=3.29 w=3 l=0.3
X77 vout.t118 voe1.t251 vss.t252 vss.t186 sky130_fd_pr__nfet_01v8 ad=0.6525 pd=4.79 as=0.6525 ps=4.79 w=4.5 l=0.45
X78 w_4660_n6791.t448 vin_p.t17 voe1.t207 w_4660_n6791.t35 sky130_fd_pr__pfet_01v8 ad=0.435 pd=3.29 as=0.435 ps=3.29 w=3 l=0.3
X79 vbn.t155 vin_n.t22 w_4660_n6791.t366 w_4660_n6791.t168 sky130_fd_pr__pfet_01v8 ad=0.435 pd=3.29 as=0.435 ps=3.29 w=3 l=0.3
X80 vdd.t297 iref.t48 vout.t267 vdd.t221 sky130_fd_pr__pfet_01v8 ad=0.435 pd=3.29 as=0.435 ps=3.29 w=3 l=0.3
X81 w_4660_n6791.t365 vin_n.t23 vbn.t235 w_4660_n6791.t166 sky130_fd_pr__pfet_01v8 ad=0.435 pd=3.29 as=0.435 ps=3.29 w=3 l=0.3
X82 vdd.t296 iref.t49 vout.t16 vdd.t62 sky130_fd_pr__pfet_01v8 ad=0.435 pd=3.29 as=0.435 ps=3.29 w=3 l=0.3
X83 vout.t152 voe1.t252 vss.t251 vss.t184 sky130_fd_pr__nfet_01v8 ad=0.6525 pd=4.79 as=0.6525 ps=4.79 w=4.5 l=0.45
X84 voe1.t139 vbn.t265 vss.t294 vss.t19 sky130_fd_pr__nfet_01v8 ad=0.435 pd=3.29 as=0.435 ps=3.29 w=3 l=0.3
X85 w_4660_n6791.t36 vin_p.t18 voe1.t21 w_4660_n6791.t35 sky130_fd_pr__pfet_01v8 ad=0.435 pd=3.29 as=0.435 ps=3.29 w=3 l=0.3
X86 w_4660_n6791.t364 vin_n.t24 vbn.t234 w_4660_n6791.t144 sky130_fd_pr__pfet_01v8 ad=0.435 pd=3.29 as=0.435 ps=3.29 w=3 l=0.3
X87 vout.t279 iref.t50 vdd.t295 vdd.t218 sky130_fd_pr__pfet_01v8 ad=0.435 pd=3.29 as=0.435 ps=3.29 w=3 l=0.3
X88 vdd.t294 iref.t51 w_4660_n6791.t459 vdd.t293 sky130_fd_pr__pfet_01v8 ad=0.435 pd=3.29 as=0.435 ps=3.29 w=3 l=0.3
X89 vss.t250 voe1.t253 vout.t179 vss.t111 sky130_fd_pr__nfet_01v8 ad=0.6525 pd=4.79 as=0.6525 ps=4.79 w=4.5 l=0.45
X90 vout.t149 voe1.t254 vss.t249 vss.t182 sky130_fd_pr__nfet_01v8 ad=0.6525 pd=4.79 as=0.6525 ps=4.79 w=4.5 l=0.45
X91 vdd.t292 iref.t52 w_4660_n6791.t470 vdd.t291 sky130_fd_pr__pfet_01v8 ad=0.435 pd=3.29 as=0.435 ps=3.29 w=3 l=0.3
X92 vout.t2 iref.t53 vdd.t290 vdd.t215 sky130_fd_pr__pfet_01v8 ad=0.435 pd=3.29 as=0.435 ps=3.29 w=3 l=0.3
X93 w_4660_n6791.t363 vin_n.t25 vbn.t233 w_4660_n6791.t163 sky130_fd_pr__pfet_01v8 ad=0.435 pd=3.29 as=0.435 ps=3.29 w=3 l=0.3
X94 w_4660_n6791.t362 vin_n.t26 vbn.t194 w_4660_n6791.t112 sky130_fd_pr__pfet_01v8 ad=0.435 pd=3.29 as=0.435 ps=3.29 w=3 l=0.3
X95 vout.t69 voe1.t255 vss.t248 vss.t180 sky130_fd_pr__nfet_01v8 ad=0.6525 pd=4.79 as=0.6525 ps=4.79 w=4.5 l=0.45
X96 vbn.t59 vbn.t58 vss.t320 vss.t299 sky130_fd_pr__nfet_01v8 ad=0.435 pd=3.29 as=0.435 ps=3.29 w=3 l=0.3
X97 vout.t238 iref.t54 vdd.t287 vdd.t213 sky130_fd_pr__pfet_01v8 ad=0.435 pd=3.29 as=0.435 ps=3.29 w=3 l=0.3
X98 w_4660_n6791.t361 vin_n.t27 vbn.t193 w_4660_n6791.t112 sky130_fd_pr__pfet_01v8 ad=0.435 pd=3.29 as=0.435 ps=3.29 w=3 l=0.3
X99 vss.t247 voe1.t256 vout.t166 vss.t177 sky130_fd_pr__nfet_01v8 ad=0.6525 pd=4.79 as=0.6525 ps=4.79 w=4.5 l=0.45
X100 vss.t30 vbn.t266 voe1.t51 vss.t29 sky130_fd_pr__nfet_01v8 ad=0.435 pd=3.29 as=0.435 ps=3.29 w=3 l=0.3
X101 vbn.t192 vin_n.t28 w_4660_n6791.t360 w_4660_n6791.t25 sky130_fd_pr__pfet_01v8 ad=0.435 pd=3.29 as=0.435 ps=3.29 w=3 l=0.3
X102 iref.t9 iref.t8 vdd.t286 vdd.t285 sky130_fd_pr__pfet_01v8 ad=0.435 pd=3.29 as=0.435 ps=3.29 w=3 l=0.3
X103 vdd.t284 iref.t55 w_4660_n6791.t124 vdd.t283 sky130_fd_pr__pfet_01v8 ad=0.435 pd=3.29 as=0.435 ps=3.29 w=3 l=0.3
X104 w_4660_n6791.t58 iref.t56 vdd.t282 vdd.t281 sky130_fd_pr__pfet_01v8 ad=0.435 pd=3.29 as=0.435 ps=3.29 w=3 l=0.3
X105 voe1.t0 vin_p.t19 w_4660_n6791.t1 w_4660_n6791.t0 sky130_fd_pr__pfet_01v8 ad=0.435 pd=3.29 as=0.435 ps=3.29 w=3 l=0.3
X106 voe1.t171 vin_p.t20 w_4660_n6791.t410 w_4660_n6791.t109 sky130_fd_pr__pfet_01v8 ad=0.435 pd=3.29 as=0.435 ps=3.29 w=3 l=0.3
X107 vbn.t160 vin_n.t29 w_4660_n6791.t359 w_4660_n6791.t25 sky130_fd_pr__pfet_01v8 ad=0.435 pd=3.29 as=0.435 ps=3.29 w=3 l=0.3
X108 vss.t272 vbn.t267 voe1.t85 vss.t271 sky130_fd_pr__nfet_01v8 ad=0.435 pd=3.29 as=0.435 ps=3.29 w=3 l=0.3
X109 voe1.t169 vin_p.t21 w_4660_n6791.t408 w_4660_n6791.t0 sky130_fd_pr__pfet_01v8 ad=0.435 pd=3.29 as=0.435 ps=3.29 w=3 l=0.3
X110 voe1.t72 vin_p.t22 w_4660_n6791.t111 w_4660_n6791.t109 sky130_fd_pr__pfet_01v8 ad=0.435 pd=3.29 as=0.435 ps=3.29 w=3 l=0.3
X111 vdd.t279 iref.t6 iref.t7 vdd.t278 sky130_fd_pr__pfet_01v8 ad=0.435 pd=3.29 as=0.435 ps=3.29 w=3 l=0.3
X112 vout.t230 iref.t57 vdd.t280 vdd.t207 sky130_fd_pr__pfet_01v8 ad=0.435 pd=3.29 as=0.435 ps=3.29 w=3 l=0.3
X113 w_4660_n6791.t358 vin_n.t30 vbn.t159 w_4660_n6791.t30 sky130_fd_pr__pfet_01v8 ad=0.435 pd=3.29 as=0.435 ps=3.29 w=3 l=0.3
X114 vbn.t158 vin_n.t31 w_4660_n6791.t357 w_4660_n6791.t11 sky130_fd_pr__pfet_01v8 ad=0.435 pd=3.29 as=0.435 ps=3.29 w=3 l=0.3
X115 vss.t36 vbn.t56 vbn.t57 vss.t23 sky130_fd_pr__nfet_01v8 ad=0.435 pd=3.29 as=0.435 ps=3.29 w=3 l=0.3
X116 voe1.t2 vin_p.t23 w_4660_n6791.t4 w_4660_n6791.t2 sky130_fd_pr__pfet_01v8 ad=0.435 pd=3.29 as=0.435 ps=3.29 w=3 l=0.3
X117 vout.t226 iref.t58 vdd.t277 vdd.t205 sky130_fd_pr__pfet_01v8 ad=0.87 pd=6.58 as=0.435 ps=3.29 w=3 l=0.3
X118 vbn.t88 vin_n.t32 w_4660_n6791.t356 w_4660_n6791.t11 sky130_fd_pr__pfet_01v8 ad=0.435 pd=3.29 as=0.435 ps=3.29 w=3 l=0.3
X119 voe1.t1 vin_p.t24 w_4660_n6791.t3 w_4660_n6791.t2 sky130_fd_pr__pfet_01v8 ad=0.435 pd=3.29 as=0.435 ps=3.29 w=3 l=0.3
X120 voe1.t225 vbn.t268 vss.t314 vss.t291 sky130_fd_pr__nfet_01v8 ad=0.435 pd=3.29 as=0.435 ps=3.29 w=3 l=0.3
X121 w_4660_n6791.t355 vin_n.t33 vbn.t87 w_4660_n6791.t70 sky130_fd_pr__pfet_01v8 ad=0.435 pd=3.29 as=0.435 ps=3.29 w=3 l=0.3
X122 iref.t29 iref.t28 vdd.t182 vdd.t181 sky130_fd_pr__pfet_01v8 ad=0.87 pd=6.58 as=0.435 ps=3.29 w=3 l=0.3
X123 w_4660_n6791.t354 vin_n.t34 vbn.t86 w_4660_n6791.t88 sky130_fd_pr__pfet_01v8 ad=0.435 pd=3.29 as=0.435 ps=3.29 w=3 l=0.3
X124 vdd.t276 iref.t59 vout.t17 vdd.t201 sky130_fd_pr__pfet_01v8 ad=0.435 pd=3.29 as=0.435 ps=3.29 w=3 l=0.3
X125 vbn.t133 vin_n.t35 w_4660_n6791.t353 w_4660_n6791.t5 sky130_fd_pr__pfet_01v8 ad=0.435 pd=3.29 as=0.435 ps=3.29 w=3 l=0.3
X126 vbn.t132 vin_n.t36 w_4660_n6791.t352 w_4660_n6791.t17 sky130_fd_pr__pfet_01v8 ad=0.435 pd=3.29 as=0.435 ps=3.29 w=3 l=0.3
X127 w_4660_n6791.t351 vin_n.t37 vbn.t131 w_4660_n6791.t144 sky130_fd_pr__pfet_01v8 ad=0.435 pd=3.29 as=0.435 ps=3.29 w=3 l=0.3
X128 w_4660_n6791.t350 vin_n.t38 vbn.t250 w_4660_n6791.t163 sky130_fd_pr__pfet_01v8 ad=0.435 pd=3.29 as=0.435 ps=3.29 w=3 l=0.3
X129 vbn.t55 vbn.t54 vss.t9 vss.t8 sky130_fd_pr__nfet_01v8 ad=0.87 pd=6.58 as=0.435 ps=3.29 w=3 l=0.3
X130 w_4660_n6791.t34 vin_p.t25 voe1.t20 w_4660_n6791.t33 sky130_fd_pr__pfet_01v8 ad=0.435 pd=3.29 as=0.435 ps=3.29 w=3 l=0.3
X131 w_4660_n6791.t349 vin_n.t39 vbn.t249 w_4660_n6791.t122 sky130_fd_pr__pfet_01v8 ad=0.87 pd=6.58 as=0.435 ps=3.29 w=3 l=0.3
X132 w_4660_n6791.t348 vin_n.t40 vbn.t248 w_4660_n6791.t163 sky130_fd_pr__pfet_01v8 ad=0.435 pd=3.29 as=0.435 ps=3.29 w=3 l=0.3
X133 w_4660_n6791.t423 vin_p.t26 voe1.t183 w_4660_n6791.t33 sky130_fd_pr__pfet_01v8 ad=0.435 pd=3.29 as=0.435 ps=3.29 w=3 l=0.3
X134 vout.t292 iref.t60 vdd.t275 vdd.t187 sky130_fd_pr__pfet_01v8 ad=0.435 pd=3.29 as=0.435 ps=3.29 w=3 l=0.3
X135 vdd.t274 iref.t61 vout.t45 vdd.t54 sky130_fd_pr__pfet_01v8 ad=0.435 pd=3.29 as=0.435 ps=3.29 w=3 l=0.3
X136 vout.t300 a_10611_n7515.t11 sky130_fd_pr__cap_mim_m3_1 l=15 w=17.55
X137 w_4660_n6791.t38 vin_p.t27 voe1.t22 w_4660_n6791.t37 sky130_fd_pr__pfet_01v8 ad=0.435 pd=3.29 as=0.435 ps=3.29 w=3 l=0.3
X138 vss.t246 voe1.t257 vout.t199 vss.t105 sky130_fd_pr__nfet_01v8 ad=0.6525 pd=4.79 as=0.6525 ps=4.79 w=4.5 l=0.45
X139 w_4660_n6791.t59 vin_p.t28 voe1.t35 w_4660_n6791.t37 sky130_fd_pr__pfet_01v8 ad=0.435 pd=3.29 as=0.435 ps=3.29 w=3 l=0.3
X140 w_4660_n6791.t347 vin_n.t41 vbn.t214 w_4660_n6791.t50 sky130_fd_pr__pfet_01v8 ad=0.435 pd=3.29 as=0.435 ps=3.29 w=3 l=0.3
X141 vbn.t213 vin_n.t42 w_4660_n6791.t346 w_4660_n6791.t77 sky130_fd_pr__pfet_01v8 ad=0.435 pd=3.29 as=0.87 ps=6.58 w=3 l=0.3
X142 voe1.t3 vin_p.t29 w_4660_n6791.t6 w_4660_n6791.t5 sky130_fd_pr__pfet_01v8 ad=0.435 pd=3.29 as=0.435 ps=3.29 w=3 l=0.3
X143 voe1.t4 vin_p.t30 w_4660_n6791.t8 w_4660_n6791.t7 sky130_fd_pr__pfet_01v8 ad=0.435 pd=3.29 as=0.435 ps=3.29 w=3 l=0.3
X144 vout.t34 iref.t62 vdd.t273 vdd.t179 sky130_fd_pr__pfet_01v8 ad=0.435 pd=3.29 as=0.435 ps=3.29 w=3 l=0.3
X145 vout.t301 a_10611_n7515.t10 sky130_fd_pr__cap_mim_m3_1 l=15 w=17.55
X146 w_4660_n6791.t345 vin_n.t43 vbn.t212 w_4660_n6791.t60 sky130_fd_pr__pfet_01v8 ad=0.435 pd=3.29 as=0.435 ps=3.29 w=3 l=0.3
X147 vout.t111 voe1.t258 vss.t245 vss.t101 sky130_fd_pr__nfet_01v8 ad=0.6525 pd=4.79 as=0.6525 ps=4.79 w=4.5 l=0.45
X148 voe1.t5 vin_p.t31 w_4660_n6791.t9 w_4660_n6791.t5 sky130_fd_pr__pfet_01v8 ad=0.435 pd=3.29 as=0.435 ps=3.29 w=3 l=0.3
X149 voe1.t19 vin_p.t32 w_4660_n6791.t32 w_4660_n6791.t7 sky130_fd_pr__pfet_01v8 ad=0.435 pd=3.29 as=0.435 ps=3.29 w=3 l=0.3
X150 vout.t18 iref.t63 vdd.t272 vdd.t177 sky130_fd_pr__pfet_01v8 ad=0.435 pd=3.29 as=0.435 ps=3.29 w=3 l=0.3
X151 vout.t283 iref.t64 vdd.t271 vdd.t175 sky130_fd_pr__pfet_01v8 ad=0.87 pd=6.58 as=0.435 ps=3.29 w=3 l=0.3
X152 vss.t244 voe1.t259 vout.t94 vss.t99 sky130_fd_pr__nfet_01v8 ad=0.6525 pd=4.79 as=0.6525 ps=4.79 w=4.5 l=0.45
X153 vout.t95 voe1.t260 vss.t243 vss.t97 sky130_fd_pr__nfet_01v8 ad=1.305 pd=9.58 as=0.6525 ps=4.79 w=4.5 l=0.45
X154 vout.t79 voe1.t261 vss.t242 vss.t172 sky130_fd_pr__nfet_01v8 ad=0.6525 pd=4.79 as=0.6525 ps=4.79 w=4.5 l=0.45
X155 voe1.t79 vin_p.t33 w_4660_n6791.t117 w_4660_n6791.t86 sky130_fd_pr__pfet_01v8 ad=0.435 pd=3.29 as=0.435 ps=3.29 w=3 l=0.3
X156 voe1.t185 vin_p.t34 w_4660_n6791.t425 w_4660_n6791.t77 sky130_fd_pr__pfet_01v8 ad=0.435 pd=3.29 as=0.87 ps=6.58 w=3 l=0.3
X157 vdd.t270 iref.t65 w_4660_n6791.t440 vdd.t269 sky130_fd_pr__pfet_01v8 ad=0.435 pd=3.29 as=0.435 ps=3.29 w=3 l=0.3
X158 vout.t43 iref.t66 vdd.t268 vdd.t44 sky130_fd_pr__pfet_01v8 ad=0.435 pd=3.29 as=0.435 ps=3.29 w=3 l=0.3
X159 voe1.t203 vin_p.t35 w_4660_n6791.t444 w_4660_n6791.t86 sky130_fd_pr__pfet_01v8 ad=0.435 pd=3.29 as=0.435 ps=3.29 w=3 l=0.3
X160 vout.t186 voe1.t262 vss.t241 vss.t95 sky130_fd_pr__nfet_01v8 ad=0.6525 pd=4.79 as=0.6525 ps=4.79 w=4.5 l=0.45
X161 vss.t240 voe1.t263 vout.t146 vss.t169 sky130_fd_pr__nfet_01v8 ad=0.6525 pd=4.79 as=0.6525 ps=4.79 w=4.5 l=0.45
X162 vout.t151 voe1.t264 vss.t239 vss.t93 sky130_fd_pr__nfet_01v8 ad=0.6525 pd=4.79 as=0.6525 ps=4.79 w=4.5 l=0.45
X163 voe1.t193 vin_p.t36 w_4660_n6791.t434 w_4660_n6791.t77 sky130_fd_pr__pfet_01v8 ad=0.435 pd=3.29 as=0.87 ps=6.58 w=3 l=0.3
X164 vout.t207 voe1.t265 vss.t238 vss.t167 sky130_fd_pr__nfet_01v8 ad=0.6525 pd=4.79 as=0.6525 ps=4.79 w=4.5 l=0.45
X165 w_4660_n6791.t146 iref.t67 vdd.t186 vdd.t185 sky130_fd_pr__pfet_01v8 ad=0.435 pd=3.29 as=0.435 ps=3.29 w=3 l=0.3
X166 vout.t53 iref.t68 vdd.t267 vdd.t172 sky130_fd_pr__pfet_01v8 ad=0.435 pd=3.29 as=0.435 ps=3.29 w=3 l=0.3
X167 vout.t200 voe1.t266 vss.t237 vss.t91 sky130_fd_pr__nfet_01v8 ad=0.6525 pd=4.79 as=0.6525 ps=4.79 w=4.5 l=0.45
X168 vout.t121 voe1.t267 vss.t236 vss.t87 sky130_fd_pr__nfet_01v8 ad=0.6525 pd=4.79 as=0.6525 ps=4.79 w=4.5 l=0.45
X169 voe1.t59 vbn.t269 vss.t35 vss.t31 sky130_fd_pr__nfet_01v8 ad=0.435 pd=3.29 as=0.87 ps=6.58 w=3 l=0.3
X170 vdd.t266 iref.t69 vout.t221 vdd.t38 sky130_fd_pr__pfet_01v8 ad=0.435 pd=3.29 as=0.435 ps=3.29 w=3 l=0.3
X171 vbn.t118 vin_n.t44 w_4660_n6791.t344 w_4660_n6791.t13 sky130_fd_pr__pfet_01v8 ad=0.435 pd=3.29 as=0.435 ps=3.29 w=3 l=0.3
X172 vout.t184 voe1.t268 vss.t235 vss.t165 sky130_fd_pr__nfet_01v8 ad=0.6525 pd=4.79 as=0.6525 ps=4.79 w=4.5 l=0.45
X173 vss.t234 voe1.t269 vout.t156 vss.t163 sky130_fd_pr__nfet_01v8 ad=0.6525 pd=4.79 as=0.6525 ps=4.79 w=4.5 l=0.45
X174 vbn.t117 vin_n.t45 w_4660_n6791.t343 w_4660_n6791.t13 sky130_fd_pr__pfet_01v8 ad=0.435 pd=3.29 as=0.435 ps=3.29 w=3 l=0.3
X175 vss.t233 voe1.t270 vout.t71 vss.t161 sky130_fd_pr__nfet_01v8 ad=0.6525 pd=4.79 as=0.6525 ps=4.79 w=4.5 l=0.45
X176 vss.t232 voe1.t271 vout.t192 vss.t159 sky130_fd_pr__nfet_01v8 ad=0.6525 pd=4.79 as=0.6525 ps=4.79 w=4.5 l=0.45
X177 w_4660_n6791.t435 vin_p.t37 voe1.t194 w_4660_n6791.t148 sky130_fd_pr__pfet_01v8 ad=0.435 pd=3.29 as=0.435 ps=3.29 w=3 l=0.3
X178 w_4660_n6791.t342 vin_n.t46 vbn.t116 w_4660_n6791.t70 sky130_fd_pr__pfet_01v8 ad=0.435 pd=3.29 as=0.435 ps=3.29 w=3 l=0.3
X179 vss.t231 voe1.t272 vout.t102 vss.t157 sky130_fd_pr__nfet_01v8 ad=0.6525 pd=4.79 as=0.6525 ps=4.79 w=4.5 l=0.45
X180 w_4660_n6791.t436 vin_p.t38 voe1.t195 w_4660_n6791.t148 sky130_fd_pr__pfet_01v8 ad=0.435 pd=3.29 as=0.435 ps=3.29 w=3 l=0.3
X181 vbn.t115 vin_n.t47 w_4660_n6791.t341 w_4660_n6791.t45 sky130_fd_pr__pfet_01v8 ad=0.435 pd=3.29 as=0.435 ps=3.29 w=3 l=0.3
X182 vss.t230 voe1.t273 vout.t198 vss.t155 sky130_fd_pr__nfet_01v8 ad=0.6525 pd=4.79 as=0.6525 ps=4.79 w=4.5 l=0.45
X183 vout.t297 iref.t70 vdd.t265 vdd.t167 sky130_fd_pr__pfet_01v8 ad=0.87 pd=6.58 as=0.435 ps=3.29 w=3 l=0.3
X184 vbn.t114 vin_n.t48 w_4660_n6791.t340 w_4660_n6791.t15 sky130_fd_pr__pfet_01v8 ad=0.435 pd=3.29 as=0.435 ps=3.29 w=3 l=0.3
X185 vdd.t264 iref.t71 vout.t255 vdd.t30 sky130_fd_pr__pfet_01v8 ad=0.435 pd=3.29 as=0.435 ps=3.29 w=3 l=0.3
X186 w_4660_n6791.t339 vin_n.t49 vbn.t113 w_4660_n6791.t130 sky130_fd_pr__pfet_01v8 ad=0.435 pd=3.29 as=0.435 ps=3.29 w=3 l=0.3
X187 vbn.t151 vin_n.t50 w_4660_n6791.t338 w_4660_n6791.t13 sky130_fd_pr__pfet_01v8 ad=0.435 pd=3.29 as=0.435 ps=3.29 w=3 l=0.3
X188 w_4660_n6791.t337 vin_n.t51 vbn.t150 w_4660_n6791.t130 sky130_fd_pr__pfet_01v8 ad=0.435 pd=3.29 as=0.435 ps=3.29 w=3 l=0.3
X189 voe1.t182 vin_p.t39 w_4660_n6791.t422 w_4660_n6791.t240 sky130_fd_pr__pfet_01v8 ad=0.435 pd=3.29 as=0.435 ps=3.29 w=3 l=0.3
X190 vout.t36 iref.t72 vdd.t263 vdd.t162 sky130_fd_pr__pfet_01v8 ad=0.435 pd=3.29 as=0.435 ps=3.29 w=3 l=0.3
X191 vdd.t262 iref.t73 vout.t54 vdd.t26 sky130_fd_pr__pfet_01v8 ad=0.435 pd=3.29 as=0.435 ps=3.29 w=3 l=0.3
X192 vss.t18 vbn.t52 vbn.t53 vss.t17 sky130_fd_pr__nfet_01v8 ad=0.435 pd=3.29 as=0.435 ps=3.29 w=3 l=0.3
X193 voe1.t196 vin_p.t40 w_4660_n6791.t437 w_4660_n6791.t240 sky130_fd_pr__pfet_01v8 ad=0.435 pd=3.29 as=0.435 ps=3.29 w=3 l=0.3
X194 vdd.t261 iref.t74 vout.t222 vdd.t24 sky130_fd_pr__pfet_01v8 ad=0.435 pd=3.29 as=0.435 ps=3.29 w=3 l=0.3
X195 w_4660_n6791.t336 vin_n.t52 vbn.t149 w_4660_n6791.t39 sky130_fd_pr__pfet_01v8 ad=0.435 pd=3.29 as=0.435 ps=3.29 w=3 l=0.3
X196 vss.t281 vbn.t50 vbn.t51 vss.t10 sky130_fd_pr__nfet_01v8 ad=0.435 pd=3.29 as=0.435 ps=3.29 w=3 l=0.3
X197 voe1.t128 vin_p.t41 w_4660_n6791.t169 w_4660_n6791.t168 sky130_fd_pr__pfet_01v8 ad=0.435 pd=3.29 as=0.435 ps=3.29 w=3 l=0.3
X198 vbn.t171 vin_n.t53 w_4660_n6791.t335 w_4660_n6791.t45 sky130_fd_pr__pfet_01v8 ad=0.435 pd=3.29 as=0.435 ps=3.29 w=3 l=0.3
X199 voe1.t189 vin_p.t42 w_4660_n6791.t429 w_4660_n6791.t118 sky130_fd_pr__pfet_01v8 ad=0.435 pd=3.29 as=0.435 ps=3.29 w=3 l=0.3
X200 vbn.t170 vin_n.t54 w_4660_n6791.t334 w_4660_n6791.t15 sky130_fd_pr__pfet_01v8 ad=0.435 pd=3.29 as=0.435 ps=3.29 w=3 l=0.3
X201 voe1.t205 vin_p.t43 w_4660_n6791.t446 w_4660_n6791.t168 sky130_fd_pr__pfet_01v8 ad=0.435 pd=3.29 as=0.435 ps=3.29 w=3 l=0.3
X202 vbn.t169 vin_n.t55 w_4660_n6791.t333 w_4660_n6791.t45 sky130_fd_pr__pfet_01v8 ad=0.435 pd=3.29 as=0.435 ps=3.29 w=3 l=0.3
X203 voe1.t80 vin_p.t44 w_4660_n6791.t119 w_4660_n6791.t118 sky130_fd_pr__pfet_01v8 ad=0.435 pd=3.29 as=0.435 ps=3.29 w=3 l=0.3
X204 w_4660_n6791.t167 vin_p.t45 voe1.t127 w_4660_n6791.t166 sky130_fd_pr__pfet_01v8 ad=0.435 pd=3.29 as=0.435 ps=3.29 w=3 l=0.3
X205 vout.t57 iref.t75 vdd.t260 vdd.t158 sky130_fd_pr__pfet_01v8 ad=0.435 pd=3.29 as=0.435 ps=3.29 w=3 l=0.3
X206 vdd.t259 iref.t76 vout.t30 vdd.t16 sky130_fd_pr__pfet_01v8 ad=0.435 pd=3.29 as=0.435 ps=3.29 w=3 l=0.3
X207 vbn.t49 vbn.t48 vss.t303 vss.t302 sky130_fd_pr__nfet_01v8 ad=0.435 pd=3.29 as=0.435 ps=3.29 w=3 l=0.3
X208 w_4660_n6791.t424 vin_p.t46 voe1.t184 w_4660_n6791.t166 sky130_fd_pr__pfet_01v8 ad=0.435 pd=3.29 as=0.435 ps=3.29 w=3 l=0.3
X209 vout.t284 iref.t77 vdd.t258 vdd.t155 sky130_fd_pr__pfet_01v8 ad=0.435 pd=3.29 as=0.435 ps=3.29 w=3 l=0.3
X210 voe1.t204 vin_p.t47 w_4660_n6791.t445 w_4660_n6791.t47 sky130_fd_pr__pfet_01v8 ad=0.435 pd=3.29 as=0.435 ps=3.29 w=3 l=0.3
X211 vbn.t247 vin_n.t56 w_4660_n6791.t332 w_4660_n6791.t41 sky130_fd_pr__pfet_01v8 ad=0.435 pd=3.29 as=0.435 ps=3.29 w=3 l=0.3
X212 w_4660_n6791.t331 vin_n.t57 vbn.t246 w_4660_n6791.t35 sky130_fd_pr__pfet_01v8 ad=0.435 pd=3.29 as=0.435 ps=3.29 w=3 l=0.3
X213 vbn.t47 vbn.t46 vss.t282 vss.t12 sky130_fd_pr__nfet_01v8 ad=0.435 pd=3.29 as=0.435 ps=3.29 w=3 l=0.3
X214 vout.t51 iref.t78 vdd.t257 vdd.t153 sky130_fd_pr__pfet_01v8 ad=0.435 pd=3.29 as=0.435 ps=3.29 w=3 l=0.3
X215 voe1.t81 vin_p.t48 w_4660_n6791.t120 w_4660_n6791.t47 sky130_fd_pr__pfet_01v8 ad=0.435 pd=3.29 as=0.435 ps=3.29 w=3 l=0.3
X216 vout.t66 voe1.t274 vss.t229 vss.t81 sky130_fd_pr__nfet_01v8 ad=0.6525 pd=4.79 as=0.6525 ps=4.79 w=4.5 l=0.45
X217 vbn.t245 vin_n.t58 w_4660_n6791.t330 w_4660_n6791.t168 sky130_fd_pr__pfet_01v8 ad=0.435 pd=3.29 as=0.435 ps=3.29 w=3 l=0.3
X218 vout.t285 iref.t79 vdd.t256 vdd.t12 sky130_fd_pr__pfet_01v8 ad=0.435 pd=3.29 as=0.435 ps=3.29 w=3 l=0.3
X219 w_4660_n6791.t157 vin_p.t49 voe1.t119 w_4660_n6791.t112 sky130_fd_pr__pfet_01v8 ad=0.435 pd=3.29 as=0.435 ps=3.29 w=3 l=0.3
X220 w_4660_n6791.t433 iref.t80 vdd.t255 vdd.t254 sky130_fd_pr__pfet_01v8 ad=0.435 pd=3.29 as=0.87 ps=6.58 w=3 l=0.3
X221 w_4660_n6791.t329 vin_n.t59 vbn.t211 w_4660_n6791.t39 sky130_fd_pr__pfet_01v8 ad=0.435 pd=3.29 as=0.435 ps=3.29 w=3 l=0.3
X222 vss.t274 vbn.t44 vbn.t45 vss.t273 sky130_fd_pr__nfet_01v8 ad=0.435 pd=3.29 as=0.435 ps=3.29 w=3 l=0.3
X223 w_4660_n6791.t432 vin_p.t50 voe1.t192 w_4660_n6791.t144 sky130_fd_pr__pfet_01v8 ad=0.435 pd=3.29 as=0.435 ps=3.29 w=3 l=0.3
X224 w_4660_n6791.t89 vin_p.t51 voe1.t54 w_4660_n6791.t88 sky130_fd_pr__pfet_01v8 ad=0.435 pd=3.29 as=0.435 ps=3.29 w=3 l=0.3
X225 w_4660_n6791.t170 vin_p.t52 voe1.t129 w_4660_n6791.t112 sky130_fd_pr__pfet_01v8 ad=0.435 pd=3.29 as=0.435 ps=3.29 w=3 l=0.3
X226 vss.t228 voe1.t275 vout.t67 vss.t150 sky130_fd_pr__nfet_01v8 ad=0.6525 pd=4.79 as=0.6525 ps=4.79 w=4.5 l=0.45
X227 vout.t80 voe1.t276 vss.t227 vss.t77 sky130_fd_pr__nfet_01v8 ad=0.6525 pd=4.79 as=0.6525 ps=4.79 w=4.5 l=0.45
X228 vbn.t210 vin_n.t60 w_4660_n6791.t328 w_4660_n6791.t118 sky130_fd_pr__pfet_01v8 ad=0.435 pd=3.29 as=0.435 ps=3.29 w=3 l=0.3
X229 w_4660_n6791.t327 vin_n.t61 vbn.t209 w_4660_n6791.t39 sky130_fd_pr__pfet_01v8 ad=0.435 pd=3.29 as=0.435 ps=3.29 w=3 l=0.3
X230 w_4660_n6791.t155 vin_p.t53 voe1.t117 w_4660_n6791.t144 sky130_fd_pr__pfet_01v8 ad=0.435 pd=3.29 as=0.435 ps=3.29 w=3 l=0.3
X231 w_4660_n6791.t156 vin_p.t54 voe1.t118 w_4660_n6791.t88 sky130_fd_pr__pfet_01v8 ad=0.435 pd=3.29 as=0.435 ps=3.29 w=3 l=0.3
X232 voe1.t14 vin_p.t55 w_4660_n6791.t26 w_4660_n6791.t25 sky130_fd_pr__pfet_01v8 ad=0.435 pd=3.29 as=0.435 ps=3.29 w=3 l=0.3
X233 vss.t226 voe1.t277 vout.t204 vss.t75 sky130_fd_pr__nfet_01v8 ad=0.6525 pd=4.79 as=0.6525 ps=4.79 w=4.5 l=0.45
X234 vout.t123 voe1.t278 vss.t225 vss.t73 sky130_fd_pr__nfet_01v8 ad=0.6525 pd=4.79 as=0.6525 ps=4.79 w=4.5 l=0.45
X235 voe1.t15 vin_p.t56 w_4660_n6791.t27 w_4660_n6791.t25 sky130_fd_pr__pfet_01v8 ad=0.435 pd=3.29 as=0.435 ps=3.29 w=3 l=0.3
X236 vout.t59 voe1.t279 vss.t224 vss.t69 sky130_fd_pr__nfet_01v8 ad=0.6525 pd=4.79 as=0.6525 ps=4.79 w=4.5 l=0.45
X237 vdd.t253 iref.t14 iref.t15 vdd.t252 sky130_fd_pr__pfet_01v8 ad=0.435 pd=3.29 as=0.435 ps=3.29 w=3 l=0.3
X238 vout.t12 iref.t81 vdd.t251 vdd.t149 sky130_fd_pr__pfet_01v8 ad=0.435 pd=3.29 as=0.435 ps=3.29 w=3 l=0.3
X239 w_4660_n6791.t431 vin_p.t57 voe1.t191 w_4660_n6791.t70 sky130_fd_pr__pfet_01v8 ad=0.435 pd=3.29 as=0.435 ps=3.29 w=3 l=0.3
X240 w_4660_n6791.t165 vin_p.t58 voe1.t126 w_4660_n6791.t50 sky130_fd_pr__pfet_01v8 ad=0.435 pd=3.29 as=0.435 ps=3.29 w=3 l=0.3
X241 vout.t60 voe1.t280 vss.t223 vss.t67 sky130_fd_pr__nfet_01v8 ad=0.6525 pd=4.79 as=0.6525 ps=4.79 w=4.5 l=0.45
X242 vss.t222 voe1.t281 vout.t61 vss.t147 sky130_fd_pr__nfet_01v8 ad=0.6525 pd=4.79 as=0.6525 ps=4.79 w=4.5 l=0.45
X243 vss.t37 vbn.t42 vbn.t43 vss.t14 sky130_fd_pr__nfet_01v8 ad=0.435 pd=3.29 as=0.435 ps=3.29 w=3 l=0.3
X244 vout.t213 iref.t82 vdd.t250 vdd.t146 sky130_fd_pr__pfet_01v8 ad=0.435 pd=3.29 as=0.435 ps=3.29 w=3 l=0.3
X245 vss.t221 voe1.t282 vout.t181 vss.t143 sky130_fd_pr__nfet_01v8 ad=0.6525 pd=4.79 as=0.6525 ps=4.79 w=4.5 l=0.45
X246 vout.t180 voe1.t283 vss.t220 vss.t65 sky130_fd_pr__nfet_01v8 ad=0.6525 pd=4.79 as=0.6525 ps=4.79 w=4.5 l=0.45
X247 w_4660_n6791.t127 vin_p.t59 voe1.t87 w_4660_n6791.t70 sky130_fd_pr__pfet_01v8 ad=0.435 pd=3.29 as=0.435 ps=3.29 w=3 l=0.3
X248 w_4660_n6791.t90 vin_p.t60 voe1.t55 w_4660_n6791.t50 sky130_fd_pr__pfet_01v8 ad=0.435 pd=3.29 as=0.435 ps=3.29 w=3 l=0.3
X249 iref.t19 iref.t18 vdd.t249 vdd.t248 sky130_fd_pr__pfet_01v8 ad=0.435 pd=3.29 as=0.435 ps=3.29 w=3 l=0.3
X250 vbn.t256 vin_n.t62 w_4660_n6791.t326 w_4660_n6791.t17 sky130_fd_pr__pfet_01v8 ad=0.435 pd=3.29 as=0.435 ps=3.29 w=3 l=0.3
X251 vout.t178 voe1.t284 vss.t219 vss.t63 sky130_fd_pr__nfet_01v8 ad=0.6525 pd=4.79 as=0.6525 ps=4.79 w=4.5 l=0.45